Circuit: * C:\Users\abhig\Desktop\LT_Spice\Draft16.asc

Direct Newton iteration for .op point succeeded.

vd: PP(v(11)-v(10))=0.000199949 FROM 0 TO 0.005
vout: PP(v(9))=1.04266 FROM 0 TO 0.005
gain: vout/vd=5214.64


Date: Sun Jun 23 16:34:06 2024
Total elapsed time: 0.058 seconds.

tnom = 27
temp = 27
method = modified trap
totiter = 2099
traniter = 2082
tranpoints = 1042
accept = 1042
rejected = 0
matrix size = 17
fillins = 2
solver = Normal
Matrix Compiler1: 864 bytes object code size  0.1/0.1/[0.1]
Matrix Compiler2: off  [0.1]/0.1/0.1

